AquaCrop 7.1 (August 2023) - Output created on (date) : 11/13/2023   at (time) : 12:15:38 AM
Crop development and production

** Run number:  1
   Day Month  Year   DAP Stage    GD       Z     StExp  StSto  StSen StSalt StWeed   CC      CCw     StTr  Kc(Tr)     Trx      Tr       TrW  Tr/Trx   WP    Biomass     HI    Y(dry)  Y(fresh)  Brelative   WPet      Bin     Bout
                                °C-day     m       %      %      %      %      %      %       %       %       -        mm       mm       mm    %     g/m2    ton/ha      %    ton/ha   ton/ha       %      kg/m3   ton/ha   ton/ha
     1     4  2016    11    2    10.0    0.50      0      0      0      0     48     1.1     0.6      7     0.02      0.1      0.1      0.1   100    34.6     0.005    -9.9    0.000    0.000       72      0.00    0.000    0.000
     2     4  2016    12    2     8.0    0.53      0      0      0      0     48     1.3     0.7     22     0.02      0.1      0.1      0.1   100    34.6     0.009    -9.9    0.000    0.000       72      0.00    0.000    0.000
     3     4  2016    13    2     7.0    0.55      0      0      0      0     48     1.5     0.8     35     0.03      0.1      0.1      0.1   100    34.6     0.013    -9.9    0.000    0.000       72      0.00    0.000    0.000
     4     4  2016    14    2     8.0    0.58      0      0      0      0     48     1.8     0.9     22     0.03      0.2      0.2      0.1   100    34.6     0.020    -9.9    0.000    0.000       72      0.00    0.000    0.000
     5     4  2016    15    2    10.5    0.60      0      0      0      0     48     2.1     1.1      5     0.04      0.2      0.2      0.1   100    34.6     0.028    -9.9    0.000    0.000       72      0.00    0.000    0.000
     6     4  2016    16    2    10.0    0.63      1      0      0      0     48     2.5     1.3      7     0.04      0.3      0.3      0.2   100    34.6     0.038    -9.9    0.000    0.000       72      0.00    0.000    0.000
     7     4  2016    17    2     8.5    0.65      0      0      0      0     48     2.9     1.5     17     0.05      0.2      0.2      0.2   100    34.6     0.049    -9.9    0.000    0.000       72      0.00    0.000    0.000
     8     4  2016    18    2     8.5    0.68      2      0      0      0     48     3.4     1.8     17     0.06      0.4      0.4      0.3   100    34.6     0.061    -9.9    0.000    0.000       72      0.00    0.000    0.000
     9     4  2016    19    2     8.5    0.70      1      0      0      0     48     4.0     2.1     17     0.07      0.4      0.4      0.3   100    34.6     0.076    -9.9    0.000    0.000       72      0.00    0.000    0.000
    10     4  2016    20    2     9.5    0.73      0      0      0      0     48     4.8     2.5     10     0.08      0.3      0.3      0.2   100    34.6     0.094    -9.9    0.000    0.000       71      0.00    0.000    0.000
    11     4  2016    21    2    10.5    0.75      0      0      0      0     48     5.6     2.9      5     0.10      0.2      0.2      0.1   100    34.6     0.117    -9.9    0.000    0.000       71      0.00    0.000    0.000
    12     4  2016    22    2    10.0    0.77      0      0      0      0     48     6.6     3.4      7     0.11      0.6      0.6      0.4   100    34.6     0.143    -9.9    0.000    0.000       71      0.00    0.000    0.000
    13     4  2016    23    2    11.5    0.79      1      0      0      0     48     7.8     4.0      3     0.13      0.9      0.9      0.6   100    34.6     0.174    -9.9    0.000    0.000       71      0.00    0.000    0.000
    14     4  2016    24    2     8.5    0.82      0      0      0      0     48     9.1     4.7     17     0.15      0.6      0.6      0.4   100    34.6     0.206    -9.9    0.000    0.000       71      0.00    0.000    0.000
    15     4  2016    25    2     9.0    0.84      2      0      0      0     48    10.7     5.6     13     0.18      1.1      1.1      0.8   100    34.6     0.244    -9.9    0.000    0.000       71      0.00    0.000    0.000
    16     4  2016    26    2     9.0    0.86      2      0      0      0     48    12.6     6.5     13     0.21      1.3      1.3      0.9   100    34.6     0.288    -9.9    0.000    0.000       70      0.00    0.000    0.000
    17     4  2016    27    2    10.0    0.88      2      0      0      0     48    14.8     7.7      7     0.24      1.6      1.6      1.1   100    34.6     0.342    -9.9    0.000    0.000       70      0.00    0.000    0.000
    18     4  2016    28    2     9.0    0.90      0      0      0      0     48    17.4     9.0     13     0.28      0.6      0.6      0.4   100    34.6     0.400    -9.9    0.000    0.000       70      0.00    0.000    0.000
    19     4  2016    29    2     5.5    0.92      0      0      0      0     48    20.4    10.6     59     0.32      0.8      0.8      0.6   100    34.6     0.432    -9.9    0.000    0.000       70      0.00    0.000    0.000
    20     4  2016    30    2     6.0    0.95      0      0      0      0     48    24.1    12.5     51     0.37      0.4      0.4      0.3   100    34.6     0.475    -9.9    0.000    0.000       69      0.00    0.000    0.000
    21     4  2016    31    2     6.0    0.97      0      0      0      0     48    28.3    14.7     51     0.43      0.7      0.7      0.5   100    34.6     0.524    -9.9    0.000    0.000       69      0.00    0.000    0.000
    22     4  2016    32    2     6.0    0.99      0      0      0      0     48    33.4    17.3     51     0.49      0.7      0.7      0.5   100    34.6     0.579    -9.9    0.000    0.000       69      0.00    0.000    0.000
    23     4  2016    33    2     5.0    1.01      0      0      0      0     48    39.3    20.4     67     0.56      0.5      0.5      0.3   100    34.6     0.621    -9.9    0.000    0.000       68      0.00    0.000    0.000
    24     4  2016    34    2     7.5    1.03      0      0      0      0     48    46.2    24.0     28     0.64      2.5      2.5      1.6   100    34.6     0.722    -9.9    0.000    0.000       68      0.00    0.000    0.000
    25     4  2016    35    2     6.5    1.05      0      0      0      0     48    53.6    27.9     43     0.71      1.8      1.8      1.1   100    34.6     0.809    -9.9    0.000    0.000       67      0.00    0.000    0.000
    26     4  2016    36    2     7.5    1.07      0      0      0      0     48    60.0    31.2     28     0.77      2.9      2.9      1.7   100    34.6     0.925    -9.9    0.000    0.000       66      0.00    0.000    0.000
    27     4  2016    37    2     8.0    1.09      0      0      0      0     48    65.4    34.0     22     0.81      4.3      4.3      2.6   100    34.6     1.056    -9.9    0.000    0.000       65      0.00    0.000    0.000
    28     4  2016    38    2     9.0    1.11      1      0      0      0     48    70.0    36.4     13     0.85      5.8      5.8      3.4   100    34.6     1.206    -9.9    0.000    0.000       64      0.00    0.000    0.000
    29     4  2016    39    2    10.5    1.13      3      0      0      0     48    73.7    38.3      5     0.88      8.3      8.3      4.8   100    34.6     1.374    -9.9    0.000    0.000       63      0.00    0.000    0.000
    30     4  2016    40    2    10.0    1.15      3      0      0      0     48    77.0    40.0      7     0.90      6.4      6.4      3.7   100    34.6     1.540    -9.9    0.000    0.000       63      0.00    0.000    0.000
     1     5  2016    41    2    10.0    1.17      3      0      0      0     48    79.8    41.5      7     0.92      5.9      5.9      3.4   100    34.6     1.709    -9.9    0.000    0.000       62      0.00    0.000    0.000
     2     5  2016    42    2    11.0    1.19      3      0      0      0     48    82.1    42.7      4     0.94      6.1      6.1      3.5   100    34.6     1.885    -9.9    0.000    0.000       61      0.00    0.000    0.000
     3     5  2016    43    2    10.0    1.20      3      0      0      0     48    84.1    43.7      7     0.95      5.3      5.3      3.0   100    34.6     2.057    -9.9    0.000    0.000       61      0.00    0.000    0.000
     4     5  2016    44    2    10.0    1.22      1      0      0      0     48    85.9    44.7      7     0.97      3.9      3.9      2.2   100    34.6     2.229    -9.9    0.000    0.000       60      0.00    0.000    0.000
     5     5  2016    45    2     9.5    1.24      1      0      0      0     48    87.4    45.4     10     0.98      3.5      3.5      2.0   100    34.6     2.398    -9.9    0.000    0.000       60      0.00    0.000    0.000
     6     5  2016    46    2     9.0    1.26      4      0      0      0     48    88.6    46.1     13     0.99      4.8      4.8      2.6   100    34.6     2.562    -9.9    0.000    0.000       60      0.00    0.000    0.000
     7     5  2016    47    2     9.0    1.28     10      0      0      0     48    89.6    46.6     13     0.99      6.9      6.9      3.8   100    34.6     2.726    -9.9    0.000    0.000       59      0.00    0.000    0.000
     8     5  2016    48    2    11.0    1.30      9      0      0      0     48    90.5    47.0      4     1.00      6.7      6.7      3.7   100    34.6     2.907    -9.9    0.000    0.000       59      0.00    0.000    0.000
     9     5  2016    49    2    11.5    1.32      5      0      0      0     48    91.2    47.4      3     1.00      5.0      5.0      2.7   100    34.6     3.092    -9.9    0.000    0.000       59      0.00    0.000    0.000
    10     5  2016    50    2    11.0    1.34      0      0      0      0     48    91.9    47.8      4     1.01      6.7      6.7      3.6   100    34.6     3.274    -9.9    0.000    0.000       58      0.00    0.000    0.000
    11     5  2016    51    2     9.0    1.35      7      0      0      0     48    92.5    48.1     13     1.01      5.8      5.8      3.2   100    34.6     3.440    -9.9    0.000    0.000       58      0.00    0.000    0.000
    12     5  2016    52    2     9.0    1.37      3      0      0      0     48    93.0    48.4     13     1.01      3.4      3.4      1.8   100    34.6     3.605    -9.9    0.000    0.000       58      0.00    0.000    0.000
    13     5  2016    53    2     7.0    1.39      5      0      0      0     48    93.4    48.6     35     1.02      3.2      3.2      1.7   100    34.6     3.729    -9.9    0.000    0.000       58      0.00    0.000    0.000
    14     5  2016    54    2     6.5    1.41      3      0      0      0     48    93.8    48.8     43     1.02      2.2      2.2      1.2   100    34.6     3.838    -9.9    0.000    0.000       58      0.00    0.000    0.000
    15     5  2016    55    2     7.5    1.43      2      0      0      0     48    94.1    48.9     28     1.02      2.1      2.1      1.2   100    34.6     3.976    -9.9    0.000    0.000       58      0.00    0.000    0.000
    16     5  2016    56    2     8.5    1.45      3      0      0      0     48    94.6    49.2     17     1.03      3.0      3.0      1.6   100    34.6     4.134    -9.9    0.000    0.000       57      0.00    0.000    0.000
    17     5  2016    57    2     9.0    1.46     -9      0      0      0     48    94.8    49.3     13     1.03      3.0      3.0      1.6   100    34.6     4.301    -9.9    0.000    0.000       57      0.00    0.000    0.000
    18     5  2016    58    2     9.0    1.48     -9      0      0      0     48    95.0    49.4     13     1.03      4.1      4.1      2.2   100    34.6     4.468    -9.9    0.000    0.000       57      0.00    0.000    0.000
    19     5  2016    59    2     9.5    1.50     -9      0      0      0     48    95.2    49.5     10     1.03      4.5      4.5      2.5   100    34.6     4.641    -9.9    0.000    0.000       57      0.00    0.000    0.000
    20     5  2016    60    2    11.0    1.52     -9      0      0      0     48    95.3    49.6      4     1.03      6.6      6.6      3.6   100    34.6     4.825    -9.9    0.000    0.000       57      0.00    0.000    0.000
    21     5  2016    61    2    10.0    1.53     -9      0      0      0     48    95.4    49.6      7     1.03      5.4      5.4      2.9   100    34.6     5.003    -9.9    0.000    0.000       57      0.00    0.000    0.000
    22     5  2016    62    2    10.0    1.55     -9      0      0      0     48    95.5    49.7      7     1.03      4.4      4.4      2.4   100    34.6     5.180    -9.9    0.000    0.000       57      0.00    0.000    0.000
    23     5  2016    63    2    10.0    1.57     -9      0      0      0     48    95.6    49.7      7     1.02      3.6      3.6      1.9   100    34.6     5.356    -9.9    0.000    0.000       57      0.00    0.000    0.000
    24     5  2016    64    2    10.5    1.59     -9      0      0      0     48    95.6    49.7      5     1.02      4.7      4.7      2.5   100    34.6     5.536    -9.9    0.000    0.000       57      0.00    0.000    0.000
    25     5  2016    65    2    11.0    1.60     -9      0      0      0     48    95.7    49.8      4     1.02      6.6      6.6      3.5   100    34.6     5.718    -9.9    0.000    0.000       56      0.00    0.000    0.000
    26     5  2016    66    2    12.0    1.62     -9      0      0      0     48    95.7    49.8      0     1.02      7.7      7.7      4.1   100    34.6     5.907    -9.9    0.000    0.000       56      0.00    0.000    0.000
    27     5  2016    67    3    10.5    1.64     -9      0      0      0     48    95.8    49.8      5     1.01      4.4      4.4      2.4   100    34.6     6.085    -9.9    0.000    0.000       56      0.00    0.000    0.000
    28     5  2016    68    3     9.5    1.66     -9      0      0      0     48    95.8    49.8     10     1.01      5.5      5.5      2.9   100    34.6     6.255    -9.9    0.000    0.000       56      0.00    0.000    0.000
    29     5  2016    69    3     8.0    1.67     -9      0      0      0     48    95.8    49.8     22     1.01      2.8      2.8      1.5   100    34.6     6.401    -9.9    0.000    0.000       56      0.00    0.000    0.000
    30     5  2016    70    3    10.5    1.69     -9      0      0      0     48    95.9    49.8      5     1.01      4.2      4.2      2.2   100    34.6     6.578     1.5    0.095    0.106       56      0.04    0.000    0.000
    31     5  2016    71    3     9.0    1.71     -9      0      0      0     48    95.9    49.9     13     1.00      3.7      3.7      2.0   100    34.6     6.740     1.6    0.111    0.123       56      0.05    0.000    0.000
     1     6  2016    72    3     7.5    1.72     -9      0      0      0     48    95.9    49.9     28     1.00      8.2      8.2      4.4   100    34.6     6.874     1.9    0.127    0.142       56      0.06    0.000    0.000
     2     6  2016    73    3     7.0    1.74     -9      0      0      0     48    95.9    49.9     35     1.00      1.9      1.9      1.0   100    34.6     6.994     2.1    0.146    0.163       56      0.06    0.000    0.000
     3     6  2016    74    3     6.5    1.76     -9      0      0      0     48    95.9    49.9     43     0.99      2.3      2.3      1.2   100    34.6     7.099     2.4    0.168    0.187       56      0.07    0.000    0.000
     4     6  2016    75    3     6.0    1.77     -9      0      0      0     48    95.9    49.9     51     0.99      1.7      1.7      0.9   100    34.6     7.190     2.7    0.192    0.213       56      0.08    0.000    0.000
     5     6  2016    76    3     5.5    1.79     -9      0      0      0     48    95.9    49.9     59     0.99      1.6      1.6      0.9   100    34.6     7.265     3.0    0.218    0.243       56      0.09    0.000    0.000
     6     6  2016    77    3     5.5    1.81     -9      0      0      0     48    96.0    49.9     59     0.99      1.8      1.8      1.0   100    34.6     7.340     3.4    0.248    0.276       56      0.10    0.000    0.000
     7     6  2016    78    3     7.5    1.82     -9      0      0      0     48    96.0    49.9     28     0.98      2.3      2.3      1.2   100    34.6     7.471     3.8    0.284    0.316       56      0.12    0.000    0.000
     8     6  2016    79    3     6.0    1.84     -9      0      0      0     48    96.0    49.9     51     0.98      1.5      1.5      0.8   100    34.6     7.560     4.3    0.323    0.359       56      0.13    0.000    0.000
     9     6  2016    80    4     8.0    1.86     -9      0      0      0     48    96.0    49.9     22     0.98      5.0      5.0      2.7   100    34.6     7.702     4.8    0.369    0.410       56      0.15    0.000    0.000
    10     6  2016    81    4     8.5    1.87     -9      0      0      0     48    96.0    49.9     17     0.97      1.9      1.9      1.0   100    34.6     7.852     5.4    0.422    0.469       56      0.17    0.000    0.000
    11     6  2016    82    4     8.5    1.89     -9      0      0      0     48    96.0    49.9     17     0.97      3.5      3.5      1.9   100    34.6     8.002     6.0    0.481    0.534       56      0.19    0.000    0.000
    12     6  2016    83    4     6.5    1.91     -9      0      0      0     48    96.0    49.9     43     0.97      1.6      1.6      0.8   100    34.6     8.105     6.7    0.544    0.604       56      0.21    0.000    0.000
    13     6  2016    84    4     6.5    1.92     -9      0      0      0     48    96.0    49.9     43     0.97      0.6      0.6      0.3   100    34.6     8.207     7.5    0.614    0.682       56      0.24    0.000    0.000
    14     6  2016    85    4     8.0    1.94     -9      0      0      0     48    96.0    49.9     22     0.96      4.2      4.2      2.3   100    34.6     8.347     8.3    0.694    0.771       56      0.27    0.000    0.000
    15     6  2016    86    4     8.5    1.95     -9      0      0      0     48    96.0    49.9     17     0.96      4.4      4.4      2.4   100    34.6     8.495     9.2    0.784    0.871       56      0.30    0.000    0.000
    16     6  2016    87    4     9.0    1.97     -9      0      0      0     48    96.0    49.9     13     0.96      3.1      3.1      1.7   100    34.6     8.650    10.1    0.878    0.975       55      0.33    0.000    0.000
    17     6  2016    88    4    10.5    1.99     -9      0      0      0     48    96.0    49.9      5     0.96      4.2      4.2      2.2   100    34.6     8.818    11.1    0.976    1.085       55      0.36    0.000    0.000
    18     6  2016    89    4     7.5    2.00     -9      0      0      0     48    96.0    49.9     28     0.95      4.7      4.7      2.5   100    34.6     8.945    12.0    1.073    1.192       55      0.39    0.000    0.000
    19     6  2016    90    4     6.5    2.02     -9      0      0      0     48    96.0    49.9     43     0.95      1.1      1.1      0.6   100    34.6     9.045    12.9    1.169    1.299       55      0.42    0.000    0.000
    20     6  2016    91    4     6.0    2.03     -9      0      0      0     48    96.0    49.9     51     0.95      3.0      3.0      1.6   100    34.6     9.132    13.8    1.264    1.405       55      0.45    0.000    0.000
    21     6  2016    92    4     6.0    2.05     -9      0      0      0     48    96.0    49.9     51     0.94      1.2      1.2      0.6   100    34.6     9.218    14.8    1.361    1.513       55      0.49    0.000    0.000
    22     6  2016    93    4     7.0    2.07     -9      0      0      0     48    96.0    49.9     35     0.94      4.9      4.9      2.7   100    34.6     9.331    15.7    1.464    1.627       55      0.51    0.000    0.000
    23     6  2016    94    4     6.0    2.08     -9      0      0      0     48    96.0    49.9     51     0.94      1.8      1.8      1.0   100    34.6     9.416    16.6    1.565    1.739       55      0.54    0.000    0.000
    24     6  2016    95    4     6.5    2.10     -9      0      0      0     48    96.0    49.9     43     0.94      0.7      0.7      0.4   100    34.6     9.516    17.5    1.669    1.855       55      0.58    0.000    0.000
    25     6  2016    96    4     8.0    2.11     -9      0      0      0     48    96.0    49.9     22     0.93      3.0      3.0      1.6   100    34.6     9.651    18.5    1.782    1.980       55      0.61    0.000    0.000
    26     6  2016    97    4     9.0    2.13     -9      0      0      0     48    96.0    49.9     13     0.93      2.3      2.3      1.3   100    34.6     9.801    19.4    1.900    2.112       55      0.65    0.000    0.000
    27     6  2016    98    4     7.0    2.15     -9      0      0      0     48    96.0    49.9     35     0.93      4.1      4.1      2.2   100    34.6     9.912    20.3    2.014    2.238       55      0.68    0.000    0.000
    28     6  2016    99    4     7.0    2.16     -9      0      0      0     48    96.0    49.9     35     0.92      3.1      3.1      1.6   100    34.6    10.024    21.2    2.129    2.366       55      0.71    0.000    0.000
    29     6  2016   100    4     7.5    2.18     -9      0      0      0     48    96.0    49.9     28     0.92      4.6      4.6      2.5   100    34.6    10.147    22.2    2.249    2.499       55      0.74    0.000    0.000
    30     6  2016   101    4     6.5    2.19     -9      0      0      0     48    96.0    49.9     43     0.92      2.2      2.2      1.2   100    34.6    10.244    23.1    2.365    2.628       55      0.77    0.000    0.000
     1     7  2016   102    4     7.5    2.21     -9      0      0      0     48    96.0    49.9     28     0.92      3.0      3.0      1.6   100    34.6    10.366    24.0    2.489    2.766       55      0.80    0.000    0.000
     2     7  2016   103    4     8.5    2.22     -9      0      0      0     48    96.0    49.9     17     0.91      3.0      3.0      1.6   100    34.6    10.507    24.9    2.620    2.911       55      0.84    0.000    0.000
     3     7  2016   104    4     8.0    2.24     -9      0      0      0     48    96.0    49.9     22     0.91      4.3      4.3      2.3   100    34.6    10.639    25.9    2.751    3.057       55      0.87    0.000    0.000
     4     7  2016   105    4     7.5    2.25     -9      0      0      0     48    96.0    49.9     28     0.91      3.3      3.3      1.7   100    34.6    10.760    26.8    2.882    3.202       55      0.90    0.000    0.000
     5     7  2016   106    4     7.0    2.27     -9      0      0      0     48    96.0    49.9     35     0.90      1.6      1.6      0.9   100    34.6    10.869    27.7    3.012    3.346       55      0.93    0.000    0.000
     6     7  2016   107    4     7.0    2.28     -9      0      0      0     48    96.0    49.9     35     0.90      3.7      3.7      2.0   100    34.6    10.977    28.6    3.143    3.492       55      0.96    0.000    0.000
     7     7  2016   108    4     8.5    2.30     -9      0     -9      0     48    95.4    49.6     17     0.89      2.8      2.8      1.5   100    34.6    11.114    29.6    3.285    3.650       55      1.00    0.000    0.000
     8     7  2016   109    4     8.5    2.30     -9      0     -9      0     48    94.7    49.2     17     0.88      3.6      3.6      2.0   100    34.6    11.250    30.5    3.429    3.810       55      1.03    0.000    0.000
     9     7  2016   110    4     8.5    2.30     -9      0     -9      0     48    93.9    48.8     17     0.86      5.0      5.0      2.7   100    34.6    11.384    31.4    3.575    3.973       55      1.06    0.000    0.000
    10     7  2016   111    4     7.5    2.30     -9      0     -9      0     48    93.0    48.4     28     0.85      2.6      2.6      1.4   100    34.6    11.498    32.3    3.717    4.130       55      1.09    0.000    0.000
    11     7  2016   112    4     6.5    2.30     -9      0     -9      0     48    92.1    47.9     43     0.83      2.7      2.7      1.5   100    34.6    11.587    33.3    3.853    4.282       55      1.12    0.000    0.000
    12     7  2016   113    4     8.0    2.30     -9      0     -9      0     48    91.0    47.3     22     0.81      3.0      3.0      1.6   100    34.6    11.707    34.2    4.001    4.446       55      1.15    0.000    0.000
    13     7  2016   114    4     6.5    2.30     -9      0     -9      0     48    89.7    46.6     43     0.79      1.7      1.7      0.9   100    34.6    11.792    35.1    4.140    4.600       55      1.19    0.000    0.000
    14     7  2016   115    4     6.5    2.30     -9      0     -9      0     48    88.3    45.9     43     0.77      2.3      2.3      1.3   100    34.6    11.876    36.0    4.279    4.754       55      1.22    0.000    0.000
    15     7  2016   116    4     6.0    2.30     -9      0     -9      0     48    86.7    45.1     51     0.74      1.2      1.2      0.7   100    34.6    11.946    37.0    4.414    4.905       55      1.25    0.000    0.000
    16     7  2016   117    4     6.0    2.30     -9      0     -9      0     48    84.9    44.1     51     0.72      0.4      0.4      0.2   100    34.6    12.014    37.9    4.551    5.056       55      1.29    0.000    0.000
    17     7  2016   118    4     7.0    2.30     -9      0     -9      0     48    82.9    43.1     35     0.69      3.3      3.3      1.9   100    34.6    12.101    38.8    4.695    5.217       55      1.32    0.000    0.000
    18     7  2016   119    4     7.0    2.30     -9      0     -9      0     48    80.6    41.9     35     0.65      2.0      2.0      1.2   100    34.6    12.184    39.7    4.840    5.378       55      1.35    0.000    0.000
    19     7  2016   120    4     7.5    2.30     -9      0     -9      0     48    78.0    40.6     28     0.62      1.9      1.9      1.1   100    34.6    12.272    40.6    4.988    5.543       55      1.38    0.000    0.000
    20     7  2016   121    4     7.5    2.30     -9      0     -9      0     48    75.1    39.1     28     0.58      2.1      2.1      1.2   100    34.6    12.355    41.6    5.137    5.707       55      1.41    0.000    0.000
    21     7  2016   122    4     7.5    2.30     -9      0     -9      0     48    71.9    37.4     28     0.54      0.6      0.6      0.3   100    34.6    12.433    42.5    5.284    5.871       55      1.45    0.000    0.000
    22     7  2016   123    4     9.0    2.30     -9      0     -9      0     48    68.2    35.4     13     0.49      2.4      2.4      1.4   100    34.6    12.521    43.4    5.437    6.041       55      1.48    0.000    0.000
    23     7  2016   124    4     8.0    2.30     -9      0     -9      0     48    64.0    33.3     22     0.44      2.1      2.1      1.3   100    34.6    12.592    44.3    5.584    6.205       55      1.51    0.000    0.000
    24     7  2016   125    4     7.5    2.30     -9      0     -9      0     48    59.3    30.9     28     0.39      0.9      0.9      0.5   100    34.6    12.650    45.3    5.727    6.363       55      1.54    0.000    0.000
    25     7  2016   126    4     7.5    2.30     -9      0     -9      0     48    54.1    28.1     28     0.33      0.9      0.9      0.5   100    34.6    12.701    46.2    5.867    6.519       55      1.57    0.000    0.000
    26     7  2016   127    4     7.0    2.30     -9      0     -9      0     48    48.1    25.0     35     0.27      0.9      0.9      0.5   100    34.6    12.739    47.1    6.003    6.670       55      1.60    0.000    0.000
    27     7  2016   128    4     8.0    2.30     -9      0     -9      0     48    41.4    21.5     22     0.21      0.6      0.6      0.4   100    34.6    12.775    48.0    6.138    6.820       55      1.63    0.000    0.000
    28     7  2016   129    4     8.0    2.30     -9      0     -9      0     48    33.8    17.6     22     0.14      0.4      0.4      0.3   100    34.6    12.800    48.0    6.150    6.833       55      1.63    0.000    0.000
    29     7  2016   130    4     7.0    2.30     -9      0     -9      0     48    25.3    13.2     35     0.08      0.3      0.3      0.2   100    34.6    12.813    48.0    6.156    6.840       55      1.62    0.000    0.000
    30     7  2016   131    4     7.5    2.30     -9      0     -9      0     48    15.7     8.2     28     0.03      0.1      0.1      0.1   100    34.6    12.819    48.0    6.159    6.843       55      1.62    0.000    0.000
    31     7  2016   132    4     8.0    2.30     -9      0     -9      0     48     4.9     2.5     22     0.00      0.0      0.0      0.0   100    34.6    12.820    48.0    6.159    6.843       55      1.61    0.000    0.000

Legend

DAP          : Days after planting
Stage        : 0: before/after planting
Stage        : 1: emergence or transplant recovery
Stage        : 2: vegetative stage
Stage        : 3: flowering
Stage        : 4: yield formation and ripening
GD           : Growing degrees
Z            : Effective rooting depth
StExp        : Percent water stress reducing leaf expansion
StSto        : Percent water stress inducing stomatal closure
StSen        : Percent water stress triggering early canopy senescence
StSalt       : Percent salinity stress
StWeed       : Relative cover of weeds
CC           : Green total Canopy Cover of crop and weeds
CCw          : Green crop Canopy Cover in weed infested field
StTr         : Percent temperature stress affecting crop transpiration
Kc(Tr)       : Crop coefficient for transpiration
Trx          : Maximum total transpiration of crop and weeds
Tr           : Total transpiration of crop and weeds
TrW          : Crop transpiration in weed infested field
Tr/Trx       : Relative total transpiration of crop and weeds (100 Tr/Trx)
WP           : Crop water productivity adjusted for CO2, soil fertility and products synthesized
Biomass      : Total above-ground dry biomass
HI           : Harvest Index adjusted for failure of pollination, inadequate photosynthesis and water stress
Y(dry)       : Dry crop yield (HI x Biomass)
Y(fresh)     : Fresh crop yield
Brelative    : Relative biomass (Reference: no water, no soil fertility, no soil salinity stress, no weed infestation)
WPet         : ET Water productivity for yield part (kg yield produced per m3 water evapotranspired)
Bin          : Daily mass of assimilates remobilized from below-ground organs at start of season
Bout         : Daily mass of assimilates stored in below-ground organs at end of season
